Version 4
SHEET 1 2108 976
WIRE 960 -64 272 -64
WIRE 1104 -64 1024 -64
WIRE 1312 -64 1104 -64
WIRE 1376 -64 1312 -64
WIRE 1392 -64 1376 -64
WIRE 1392 -48 1392 -64
WIRE 1104 -32 1104 -64
WIRE 1312 -16 1312 -64
WIRE 1104 96 1104 48
WIRE 1104 96 416 96
WIRE 1312 96 1312 48
WIRE 1312 96 1104 96
WIRE 1392 96 1392 32
WIRE 1392 96 1312 96
WIRE 272 176 272 -64
WIRE 496 176 272 176
WIRE 720 176 576 176
WIRE 896 176 720 176
WIRE 1024 176 960 176
WIRE 1152 176 1024 176
WIRE 1424 176 1152 176
WIRE 1152 192 1152 176
WIRE 1024 224 1024 176
WIRE 720 256 720 176
WIRE 1424 304 1424 176
WIRE 416 384 416 96
WIRE 720 384 720 320
WIRE 720 384 416 384
WIRE 1024 384 1024 304
WIRE 1024 384 720 384
WIRE 1152 384 1152 336
WIRE 1152 384 1024 384
WIRE 1424 384 1152 384
WIRE 272 624 272 176
WIRE 272 640 272 624
WIRE 608 640 272 640
WIRE 944 640 688 640
WIRE 1152 640 944 640
WIRE 1408 640 1152 640
WIRE 1152 656 1152 640
WIRE 272 672 272 640
WIRE 944 688 944 640
WIRE 1408 752 1408 640
WIRE 272 768 272 752
WIRE 272 896 272 848
WIRE 416 896 416 384
WIRE 416 896 272 896
WIRE 944 896 944 752
WIRE 944 896 416 896
WIRE 1152 896 1152 800
WIRE 1152 896 944 896
WIRE 1408 896 1408 832
WIRE 1408 896 1152 896
WIRE 1152 960 1152 896
FLAG 1408 640 OutLow
FLAG 1424 176 OutMid
FLAG 1376 -64 OutHigh
FLAG 1152 960 0
FLAG 272 624 Vin
SYMBOL res 1136 176 R0
SYMATTR InstName R1
SYMATTR Value 10
SYMBOL res 1136 640 R0
SYMATTR InstName R2
SYMATTR Value 10
SYMBOL res 1376 -64 R0
SYMATTR InstName Rspk1
SYMATTR Value 8
SYMBOL res 1408 288 R0
WINDOW 0 43 34 Left 2
SYMATTR InstName Rspk2
SYMATTR Value 8
SYMBOL res 1392 736 R0
SYMATTR InstName Rspk3
SYMATTR Value 8
SYMBOL Cap 1024 -80 R90
WINDOW 0 0 32 VBottom 2
WINDOW 3 32 32 VTop 2
SYMATTR InstName C1
SYMATTR Value 2.8µ
SYMBOL Cap 736 320 R180
WINDOW 0 24 56 Left 2
WINDOW 3 24 8 Left 2
SYMATTR InstName C2
SYMATTR Value 2.8µ
SYMBOL Cap 896 192 R270
WINDOW 0 32 32 VTop 2
WINDOW 3 0 32 VBottom 2
SYMATTR InstName C3
SYMATTR Value 28µ
SYMBOL Cap 1168 336 R180
WINDOW 0 24 56 Left 2
WINDOW 3 24 8 Left 2
SYMATTR InstName C4
SYMATTR Value 4.7µ
SYMBOL Cap 960 752 R180
WINDOW 0 24 56 Left 2
WINDOW 3 24 8 Left 2
SYMATTR InstName C5
SYMATTR Value 28µ
SYMBOL Cap 1168 800 R180
WINDOW 0 24 56 Left 2
WINDOW 3 24 8 Left 2
SYMATTR InstName C6
SYMATTR Value 47µ
SYMBOL Ind 1088 -48 R0
SYMATTR InstName L1
SYMATTR Value 0.35m
SYMBOL Ind 480 192 R270
WINDOW 0 32 56 VTop 2
WINDOW 3 5 56 VBottom 2
SYMATTR InstName L2
SYMATTR Value 0.35m
SYMBOL Ind 1008 208 R0
SYMATTR InstName L3
SYMATTR Value 3.5m
SYMBOL Ind 592 656 R270
WINDOW 0 32 56 VTop 2
WINDOW 3 5 56 VBottom 2
SYMATTR InstName L4
SYMATTR Value 3.5m
SYMBOL voltage 272 752 R0
SYMATTR InstName Vin
SYMATTR Value wavefile="./ExpSweep.wav" chan=0
SYMBOL Diode 1328 48 R180
WINDOW 0 24 64 Left 2
WINDOW 3 24 0 Left 2
SYMATTR InstName D1
SYMBOL Res 256 656 R0
SYMATTR InstName R3
TEXT 1520 608 Left 2 !.wave "./MyOutLowSweep.wav" 16 192000 OutLow
TEXT 1544 488 Left 2 ;.ac oct 100 0.1 100000
TEXT 1552 528 Left 2 !.tran 2
TEXT 1520 664 Left 2 !.wave "./MyOutMidSweep.wav" 16 192000 OutMid
TEXT 1536 712 Left 2 !.wave "./MyOutHighSweep.wav" 16 192000 OutHigh
RECTANGLE Normal 180 656 372 880
